<nodes>
<node y="0" x="-15000" id="X"/>
<node y="0" x="0" id="Y"/>
</nodes>
